Version 4.1
SHEET 1 880 680
WIRE 432 128 384 128
WIRE 112 144 -208 144
WIRE 272 144 112 144
WIRE 464 160 384 160
WIRE 528 160 464 160
FLAG -208 224 0
FLAG 432 128 0
FLAG 112 208 0
FLAG 464 224 0
SYMBOL voltage -208 128 R0
WINDOW 123 0 0 Left 0
WINDOW 39 0 0 Left 0
SYMATTR InstName V1
SYMATTR Value SINE(12 1 100)
SYMBOL LM7805 320 144 R0
SYMATTR InstName U1
SYMBOL cap 96 144 R0
SYMATTR InstName C1
SYMATTR Value 220n
SYMBOL cap 448 160 R0
SYMATTR InstName C2
SYMATTR Value 100n
TEXT -240 248 Left 2 !.tran 1
